Test_Network/condensed/network_18/Feeder_9/Loads - Copy.txt
New Load.LOAD1 Phases=1 Bus1=130.3 kV=0.23 kW=1 PF=0.95
New Load.LOAD2 Phases=1 Bus1=163.1 kV=0.23 kW=1 PF=0.95
New Load.LOAD3 Phases=1 Bus1=179.3 kV=0.23 kW=1 PF=0.95
New Load.LOAD4 Phases=1 Bus1=273.3 kV=0.23 kW=1 PF=0.95
New Load.LOAD5 Phases=1 Bus1=295.2 kV=0.23 kW=1 PF=0.95
New Load.LOAD6 Phases=1 Bus1=298.1 kV=0.23 kW=1 PF=0.95
New Load.LOAD7 Phases=1 Bus1=333.1 kV=0.23 kW=1 PF=0.95
New Load.LOAD8 Phases=1 Bus1=361.2 kV=0.23 kW=1 PF=0.95
New Load.LOAD9 Phases=1 Bus1=363.3 kV=0.23 kW=1 PF=0.95
New Load.LOAD10 Phases=1 Bus1=372.2 kV=0.23 kW=1 PF=0.95
New Load.LOAD11 Phases=1 Bus1=401.1 kV=0.23 kW=1 PF=0.95
New Load.LOAD12 Phases=1 Bus1=403.1 kV=0.23 kW=1 PF=0.95
New Load.LOAD13 Phases=1 Bus1=417.1 kV=0.23 kW=1 PF=0.95
New Load.LOAD14 Phases=1 Bus1=434.3 kV=0.23 kW=1 PF=0.95
New Load.LOAD15 Phases=1 Bus1=453.1 kV=0.23 kW=1 PF=0.95
New Load.LOAD16 Phases=1 Bus1=457.1 kV=0.23 kW=1 PF=0.95
New Load.LOAD17 Phases=1 Bus1=542.3 kV=0.23 kW=1 PF=0.95
New Load.LOAD18 Phases=1 Bus1=566.1 kV=0.23 kW=1 PF=0.95
New Load.LOAD19 Phases=1 Bus1=575.1 kV=0.23 kW=1 PF=0.95
New Load.LOAD20 Phases=1 Bus1=614.3 kV=0.23 kW=1 PF=0.95
New Load.LOAD21 Phases=1 Bus1=624.3 kV=0.23 kW=1 PF=0.95
New Load.LOAD22 Phases=1 Bus1=630.3 kV=0.23 kW=1 PF=0.95
New Load.LOAD23 Phases=1 Bus1=648.3 kV=0.23 kW=1 PF=0.95
New Load.LOAD24 Phases=1 Bus1=687.3 kV=0.23 kW=1 PF=0.95
New Load.LOAD25 Phases=1 Bus1=691.2 kV=0.23 kW=1 PF=0.95
New Load.LOAD26 Phases=1 Bus1=695.3 kV=0.23 kW=1 PF=0.95
New Load.LOAD27 Phases=1 Bus1=713.2 kV=0.23 kW=1 PF=0.95
New Load.LOAD28 Phases=1 Bus1=778.3 kV=0.23 kW=1 PF=0.95
New Load.LOAD29 Phases=1 Bus1=795.3 kV=0.23 kW=1 PF=0.95
New Load.LOAD30 Phases=1 Bus1=801.1 kV=0.23 kW=1 PF=0.95
New Load.LOAD31 Phases=1 Bus1=851.1 kV=0.23 kW=1 PF=0.95
New Load.LOAD32 Phases=1 Bus1=878.3 kV=0.23 kW=1 PF=0.95
New Load.LOAD33 Phases=1 Bus1=913.1 kV=0.23 kW=1 PF=0.95
New Load.LOAD34 Phases=1 Bus1=952.3 kV=0.23 kW=1 PF=0.95
New Load.LOAD35 Phases=1 Bus1=978.3 kV=0.23 kW=1 PF=0.95
New Load.LOAD36 Phases=1 Bus1=989.3 kV=0.23 kW=1 PF=0.95
New Load.LOAD37 Phases=1 Bus1=1021.2 kV=0.23 kW=1 PF=0.95
New Load.LOAD38 Phases=1 Bus1=1041.1 kV=0.23 kW=1 PF=0.95
New Load.LOAD39 Phases=1 Bus1=1057.1 kV=0.23 kW=1 PF=0.95
New Load.LOAD40 Phases=1 Bus1=1118.3 kV=0.23 kW=1 PF=0.95
New Load.LOAD41 Phases=1 Bus1=1122.2 kV=0.23 kW=1 PF=0.95
New Load.LOAD42 Phases=1 Bus1=1131.2 kV=0.23 kW=1 PF=0.95
New Load.LOAD43 Phases=1 Bus1=1173.2 kV=0.23 kW=1 PF=0.95
New Load.LOAD44 Phases=1 Bus1=1180.1 kV=0.23 kW=1 PF=0.95
New Load.LOAD45 Phases=1 Bus1=1181.3 kV=0.23 kW=1 PF=0.95
New Load.LOAD46 Phases=1 Bus1=1182.3 kV=0.23 kW=1 PF=0.95
New Load.LOAD47 Phases=1 Bus1=1191.3 kV=0.23 kW=1 PF=0.95
New Load.LOAD48 Phases=1 Bus1=1198.3 kV=0.23 kW=1 PF=0.95
New Load.LOAD49 Phases=1 Bus1=1203.2 kV=0.23 kW=1 PF=0.95
New Load.LOAD50 Phases=1 Bus1=1205.1 kV=0.23 kW=1 PF=0.95
